* test_3.asc
R2 2 5 2
V1 1 0 0
I1 4 0 9
V2 0 5 0
E1 3 0 1 4 2
F1 2 3 V2 2
R1 1 4 2
C1 1 2 1
L1 4 3 1
;op
.ac list 0.159154943091895
.backanno
.end
